424
IRMOF-1_PM
Zn         7.57859        5.33741        5.33741
Zn        18.25341       20.49459        5.33741
Zn        18.25341        5.33741       20.49459
Zn         7.57859       20.49459       20.49459
Zn         5.33741        7.57859        5.33741
Zn         5.33741       18.25341       20.49459
Zn        20.49459       18.25341        5.33741
Zn        20.49459        7.57859       20.49459
Zn         5.33741        5.33741        7.57859
Zn        20.49459        5.33741       18.25341
Zn         5.33741       20.49459       18.25341
Zn        20.49459       20.49459        7.57859
Zn         5.33741        7.57859       20.49459
Zn        20.49459       18.25341       20.49459
Zn         5.33741       18.25341        5.33741
Zn        20.49459        7.57859        5.33741
Zn         7.57859        5.33741       20.49459
Zn        18.25341        5.33741        5.33741
Zn        18.25341       20.49459       20.49459
Zn         7.57859       20.49459        5.33741
Zn         5.33741        5.33741       18.25341
Zn         5.33741       20.49459        7.57859
Zn        20.49459        5.33741        7.57859
Zn        20.49459       20.49459       18.25341
Zn         7.57859       18.25341       18.25341
Zn        18.25341        7.57859       18.25341
Zn        18.25341       18.25341        7.57859
Zn         7.57859        7.57859        7.57859
Zn         7.57859       18.25341        7.57859
Zn        18.25341       18.25341       18.25341
Zn        18.25341        7.57859        7.57859
Zn         7.57859        7.57859       18.25341
O          6.45800        6.45800        6.45800
O         19.37400       19.37400        6.45800
O         19.37400        6.45800       19.37400
O          6.45800       19.37400       19.37400
O          6.45800        6.45800       19.37400
O         19.37400       19.37400       19.37400
O          6.45800       19.37400        6.45800
O         19.37400        6.45800        6.45800
O          7.28127        5.63473        3.46149
O         18.55073       20.19727        3.46149
O         18.55073        5.63473       22.37051
O          7.28127       20.19727       22.37051
O          3.46149        7.28127        5.63473
O          3.46149       18.55073       20.19727
O         22.37051       18.55073        5.63473
O         22.37051        7.28127       20.19727
O          5.63473        3.46149        7.28127
O         20.19727        3.46149       18.55073
O          5.63473       22.37051       18.55073
O         20.19727       22.37051        7.28127
O          5.63473        7.28127       22.37051
O         20.19727       18.55073       22.37051
O          5.63473       18.55073        3.46149
O         20.19727        7.28127        3.46149
O          7.28127        3.46149       20.19727
O         18.55073        3.46149        5.63473
O         18.55073       22.37051       20.19727
O          7.28127       22.37051        5.63473
O          3.46149        5.63473       18.55073
O          3.46149       20.19727        7.28127
O         22.37051        5.63473        7.28127
O         22.37051       20.19727       18.55073
O          7.28127       18.55073       16.37749
O         18.55073        7.28127       16.37749
O         18.55073       18.55073        9.45451
O          7.28127        7.28127        9.45451
O          3.46149       20.19727       18.55073
O          3.46149        5.63473        7.28127
O         22.37051        5.63473       18.55073
O         22.37051       20.19727        7.28127
O          5.63473       16.37749       20.19727
O         20.19727       16.37749        5.63473
O          5.63473        9.45451        5.63473
O         20.19727        9.45451       20.19727
O          5.63473       20.19727        9.45451
O         20.19727        5.63473        9.45451
O          5.63473        5.63473       16.37749
O         20.19727       20.19727       16.37749
O          7.28127       16.37749        7.28127
O         18.55073       16.37749       18.55073
O         18.55073        9.45451        7.28127
O          7.28127        9.45451       18.55073
O          3.46149       18.55073        5.63473
O          3.46149        7.28127       20.19727
O         22.37051       18.55073       20.19727
O         22.37051        7.28127        5.63473
O         20.19727        5.63473       16.37749
O          5.63473       20.19727       16.37749
O          5.63473        5.63473        9.45451
O         20.19727       20.19727        9.45451
O         16.37749        7.28127       18.55073
O         16.37749       18.55073        7.28127
O          9.45451       18.55073       18.55073
O          9.45451        7.28127        7.28127
O         18.55073        3.46149       20.19727
O          7.28127        3.46149        5.63473
O         18.55073       22.37051        5.63473
O          7.28127       22.37051       20.19727
O         18.55073        7.28127        9.45451
O          7.28127       18.55073        9.45451
O         18.55073       18.55073       16.37749
O          7.28127        7.28127       16.37749
O         20.19727        3.46149        7.28127
O          5.63473        3.46149       18.55073
O          5.63473       22.37051        7.28127
O         20.19727       22.37051       18.55073
O         16.37749        5.63473        5.63473
O         16.37749       20.19727       20.19727
O          9.45451        5.63473       20.19727
O          9.45451       20.19727        5.63473
O         20.19727       18.55073        3.46149
O          5.63473        7.28127        3.46149
O          5.63473       18.55073       22.37051
O         20.19727        7.28127       22.37051
O         16.37749       20.19727        5.63473
O         16.37749        5.63473       20.19727
O          9.45451        5.63473        5.63473
O          9.45451       20.19727       20.19727
O         18.55073       16.37749        7.28127
O          7.28127       16.37749       18.55073
O         18.55073        9.45451       18.55073
O          7.28127        9.45451        7.28127
O         18.55073       20.19727       22.37051
O          7.28127        5.63473       22.37051
O         18.55073        5.63473        3.46149
O          7.28127       20.19727        3.46149
O         20.19727       16.37749       20.19727
O          5.63473       16.37749        5.63473
O          5.63473        9.45451       20.19727
O         20.19727        9.45451        5.63473
O         16.37749       18.55073       18.55073
O         16.37749        7.28127        7.28127
O          9.45451       18.55073        7.28127
O          9.45451        7.28127       18.55073
C          6.45800        6.45800        2.87510
C         19.37400       19.37400        2.87510
C         19.37400        6.45800       22.95690
C          6.45800       19.37400       22.95690
C          2.87510        6.45800        6.45800
C          2.87510       19.37400       19.37400
C         22.95690       19.37400        6.45800
C         22.95690        6.45800       19.37400
C          6.45800        2.87510        6.45800
C         19.37400        2.87510       19.37400
C          6.45800       22.95690       19.37400
C         19.37400       22.95690        6.45800
C          6.45800        6.45800       22.95690
C         19.37400       19.37400       22.95690
C          6.45800       19.37400        2.87510
C         19.37400        6.45800        2.87510
C          6.45800        2.87510       19.37400
C         19.37400        2.87510        6.45800
C         19.37400       22.95690       19.37400
C          6.45800       22.95690        6.45800
C          2.87510        6.45800       19.37400
C          2.87510       19.37400        6.45800
C         22.95690        6.45800        6.45800
C         22.95690       19.37400       19.37400
C          6.45800       19.37400       15.79110
C         19.37400        6.45800       15.79110
C         19.37400       19.37400       10.04090
C          6.45800        6.45800       10.04090
C          6.45800       15.79110       19.37400
C         19.37400       15.79110        6.45800
C          6.45800       10.04090        6.45800
C         19.37400       10.04090       19.37400
C          6.45800       19.37400       10.04090
C         19.37400        6.45800       10.04090
C          6.45800        6.45800       15.79110
C         19.37400       19.37400       15.79110
C          6.45800       15.79110        6.45800
C         19.37400       15.79110       19.37400
C         19.37400       10.04090        6.45800
C          6.45800       10.04090       19.37400
C         15.79110        6.45800       19.37400
C         15.79110       19.37400        6.45800
C         10.04090       19.37400       19.37400
C         10.04090        6.45800        6.45800
C         15.79110        6.45800        6.45800
C         15.79110       19.37400       19.37400
C         10.04090        6.45800       19.37400
C         10.04090       19.37400        6.45800
C          6.45800        6.45800        1.38976
C         19.37400       19.37400        1.38976
C         19.37400        6.45800       24.44224
C          6.45800       19.37400       24.44224
C          1.38976        6.45800        6.45800
C          1.38976       19.37400       19.37400
C         24.44224       19.37400        6.45800
C         24.44224        6.45800       19.37400
C          6.45800        1.38976        6.45800
C         19.37400        1.38976       19.37400
C          6.45800       24.44224       19.37400
C         19.37400       24.44224        6.45800
C          6.45800        6.45800       24.44224
C         19.37400       19.37400       24.44224
C          6.45800       19.37400        1.38976
C         19.37400        6.45800        1.38976
C          6.45800        1.38976       19.37400
C         19.37400        1.38976        6.45800
C         19.37400       24.44224       19.37400
C          6.45800       24.44224        6.45800
C          1.38976        6.45800       19.37400
C          1.38976       19.37400        6.45800
C         24.44224        6.45800        6.45800
C         24.44224       19.37400       19.37400
C          6.45800       19.37400       14.30576
C         19.37400        6.45800       14.30576
C         19.37400       19.37400       11.52624
C          6.45800        6.45800       11.52624
C          6.45800       14.30576       19.37400
C         19.37400       14.30576        6.45800
C          6.45800       11.52624        6.45800
C         19.37400       11.52624       19.37400
C          6.45800       19.37400       11.52624
C         19.37400        6.45800       11.52624
C          6.45800        6.45800       14.30576
C         19.37400       19.37400       14.30576
C          6.45800       14.30576        6.45800
C         19.37400       14.30576       19.37400
C         19.37400       11.52624        6.45800
C          6.45800       11.52624       19.37400
C         14.30576        6.45800       19.37400
C         14.30576       19.37400        6.45800
C         11.52624       19.37400       19.37400
C         11.52624        6.45800        6.45800
C         14.30576        6.45800        6.45800
C         14.30576       19.37400       19.37400
C         11.52624        6.45800       19.37400
C         11.52624       19.37400        6.45800
C          7.30787        5.60813        0.69488
C         18.52413       20.22387        0.69488
C         18.52413        5.60813       25.13712
C          7.30787       20.22387       25.13712
C          0.69488        7.30787        5.60813
C          0.69488       18.52413       20.22387
C         25.13712       18.52413        5.60813
C         25.13712        7.30787       20.22387
C          5.60813        0.69488        7.30787
C         20.22387        0.69488       18.52413
C          5.60813       25.13712       18.52413
C         20.22387       25.13712        7.30787
C          5.60813        7.30787       25.13712
C         20.22387       18.52413       25.13712
C          5.60813       18.52413        0.69488
C         20.22387        7.30787        0.69488
C          7.30787        0.69488       20.22387
C         18.52413        0.69488        5.60813
C         18.52413       25.13712       20.22387
C          7.30787       25.13712        5.60813
C          0.69488        5.60813       18.52413
C          0.69488       20.22387        7.30787
C         25.13712        5.60813        7.30787
C         25.13712       20.22387       18.52413
C          7.30787       18.52413       13.61088
C         18.52413        7.30787       13.61088
C         18.52413       18.52413       12.22112
C          7.30787        7.30787       12.22112
C          0.69488       20.22387       18.52413
C          0.69488        5.60813        7.30787
C         25.13712        5.60813       18.52413
C         25.13712       20.22387        7.30787
C          5.60813       13.61088       20.22387
C         20.22387       13.61088        5.60813
C          5.60813       12.22112        5.60813
C         20.22387       12.22112       20.22387
C          5.60813       20.22387       12.22112
C         20.22387        5.60813       12.22112
C          5.60813        5.60813       13.61088
C         20.22387       20.22387       13.61088
C          7.30787       13.61088        7.30787
C         18.52413       13.61088       18.52413
C         18.52413       12.22112        7.30787
C          7.30787       12.22112       18.52413
C          0.69488       18.52413        5.60813
C          0.69488        7.30787       20.22387
C         25.13712       18.52413       20.22387
C         25.13712        7.30787        5.60813
C         20.22387        5.60813       13.61088
C          5.60813       20.22387       13.61088
C          5.60813        5.60813       12.22112
C         20.22387       20.22387       12.22112
C         13.61088        7.30787       18.52413
C         13.61088       18.52413        7.30787
C         12.22112       18.52413       18.52413
C         12.22112        7.30787        7.30787
C         18.52413        0.69488       20.22387
C          7.30787        0.69488        5.60813
C         18.52413       25.13712        5.60813
C          7.30787       25.13712       20.22387
C         18.52413        7.30787       12.22112
C          7.30787       18.52413       12.22112
C         18.52413       18.52413       13.61088
C          7.30787        7.30787       13.61088
C         20.22387        0.69488        7.30787
C          5.60813        0.69488       18.52413
C          5.60813       25.13712        7.30787
C         20.22387       25.13712       18.52413
C         13.61088        5.60813        5.60813
C         13.61088       20.22387       20.22387
C         12.22112        5.60813       20.22387
C         12.22112       20.22387        5.60813
C         20.22387       18.52413        0.69488
C          5.60813        7.30787        0.69488
C          5.60813       18.52413       25.13712
C         20.22387        7.30787       25.13712
C         13.61088       20.22387        5.60813
C         13.61088        5.60813       20.22387
C         12.22112        5.60813        5.60813
C         12.22112       20.22387       20.22387
C         18.52413       13.61088        7.30787
C          7.30787       13.61088       18.52413
C         18.52413       12.22112       18.52413
C          7.30787       12.22112        7.30787
C         18.52413       20.22387       25.13712
C          7.30787        5.60813       25.13712
C         18.52413        5.60813        0.69488
C          7.30787       20.22387        0.69488
C         20.22387       13.61088       20.22387
C          5.60813       13.61088        5.60813
C          5.60813       12.22112       20.22387
C         20.22387       12.22112        5.60813
C         13.61088       18.52413       18.52413
C         13.61088        7.30787        7.30787
C         12.22112       18.52413        7.30787
C         12.22112        7.30787       18.52413
H          7.87618        5.03982        1.15727
H         17.95582       20.79218        1.15727
H         17.95582        5.03982       24.67473
H          7.87618       20.79218       24.67473
H          1.15727        7.87618        5.03982
H          1.15727       17.95582       20.79218
H         24.67473       17.95582        5.03982
H         24.67473        7.87618       20.79218
H          5.03982        1.15727        7.87618
H         20.79218        1.15727       17.95582
H          5.03982       24.67473       17.95582
H         20.79218       24.67473        7.87618
H          5.03982        7.87618       24.67473
H         20.79218       17.95582       24.67473
H          5.03982       17.95582        1.15727
H         20.79218        7.87618        1.15727
H          7.87618        1.15727       20.79218
H         17.95582        1.15727        5.03982
H         17.95582       24.67473       20.79218
H          7.87618       24.67473        5.03982
H          1.15727        5.03982       17.95582
H          1.15727       20.79218        7.87618
H         24.67473        5.03982        7.87618
H         24.67473       20.79218       17.95582
H          7.87618       17.95582       14.07327
H         17.95582        7.87618       14.07327
H         17.95582       17.95582       11.75873
H          7.87618        7.87618       11.75873
H          1.15727       20.79218       17.95582
H          1.15727        5.03982        7.87618
H         24.67473        5.03982       17.95582
H         24.67473       20.79218        7.87618
H          5.03982       14.07327       20.79218
H         20.79218       14.07327        5.03982
H          5.03982       11.75873        5.03982
H         20.79218       11.75873       20.79218
H          5.03982       20.79218       11.75873
H         20.79218        5.03982       11.75873
H          5.03982        5.03982       14.07327
H         20.79218       20.79218       14.07327
H          7.87618       14.07327        7.87618
H         17.95582       14.07327       17.95582
H         17.95582       11.75873        7.87618
H          7.87618       11.75873       17.95582
H          1.15727       17.95582        5.03982
H          1.15727        7.87618       20.79218
H         24.67473       17.95582       20.79218
H         24.67473        7.87618        5.03982
H         20.79218        5.03982       14.07327
H          5.03982       20.79218       14.07327
H          5.03982        5.03982       11.75873
H         20.79218       20.79218       11.75873
H         14.07327        7.87618       17.95582
H         14.07327       17.95582        7.87618
H         11.75873       17.95582       17.95582
H         11.75873        7.87618        7.87618
H         17.95582        1.15727       20.79218
H          7.87618        1.15727        5.03982
H         17.95582       24.67473        5.03982
H          7.87618       24.67473       20.79218
H         17.95582        7.87618       11.75873
H          7.87618       17.95582       11.75873
H         17.95582       17.95582       14.07327
H          7.87618        7.87618       14.07327
H         20.79218        1.15727        7.87618
H          5.03982        1.15727       17.95582
H          5.03982       24.67473        7.87618
H         20.79218       24.67473       17.95582
H         14.07327        5.03982        5.03982
H         14.07327       20.79218       20.79218
H         11.75873        5.03982       20.79218
H         11.75873       20.79218        5.03982
H         20.79218       17.95582        1.15727
H          5.03982        7.87618        1.15727
H          5.03982       17.95582       24.67473
H         20.79218        7.87618       24.67473
H         14.07327       20.79218        5.03982
H         14.07327        5.03982       20.79218
H         11.75873        5.03982        5.03982
H         11.75873       20.79218       20.79218
H         17.95582       14.07327        7.87618
H          7.87618       14.07327       17.95582
H         17.95582       11.75873       17.95582
H          7.87618       11.75873        7.87618
H         17.95582       20.79218       24.67473
H          7.87618        5.03982       24.67473
H         17.95582        5.03982        1.15727
H          7.87618       20.79218        1.15727
H         20.79218       14.07327       20.79218
H          5.03982       14.07327        5.03982
H          5.03982       11.75873       20.79218
H         20.79218       11.75873        5.03982
H         14.07327       17.95582       17.95582
H         14.07327        7.87618        7.87618
H         11.75873       17.95582        7.87618
H         11.75873        7.87618       17.95582
